/*--------------------------------*- C++ -*----------------------------------*\
| =========                 |                                                 |
| \\      /  F ield         | OpenFOAM: The Open Source CFD Toolbox           |
|  \\    /   O peration     | Version:  2506                                  |
|   \\  /    A nd           | Website:  www.openfoam.com                      |
|    \\/     M anipulation  |                                                 |
\*---------------------------------------------------------------------------*/
FoamFile
{
    version     2.0;
    format      ascii;
    arch        "LSB;label=32;scalar=64";
    class       polyBoundaryMesh;
    location    "constant/polyMesh";
    object      boundary;
}
// * * * * * * * * * * * * * * * * * * * * * * * * * * * * * * * * * * * * * //

6
(
    top
    {
        type            patch;
        nFaces          560;
        startFace       32080;
    }
    bottom
    {
        type            patch;
        nFaces          560;
        startFace       32640;
    }
    right
    {
        type            patch;
        nFaces          560;
        startFace       33200;
    }
    left
    {
        type            patch;
        nFaces          560;
        startFace       33760;
    }
    front
    {
        type            patch;
        nFaces          400;
        startFace       34320;
    }
    back
    {
        type            patch;
        nFaces          400;
        startFace       34720;
    }
)

// ************************************************************************* //
