/*--------------------------------*- C++ -*----------------------------------*\
| =========                 |                                                 |
| \\      /  F ield         | OpenFOAM: The Open Source CFD Toolbox           |
|  \\    /   O peration     | Version:  2506                                  |
|   \\  /    A nd           | Website:  www.openfoam.com                      |
|    \\/     M anipulation  |                                                 |
\*---------------------------------------------------------------------------*/
FoamFile
{
    version     2.0;
    format      ascii;
    arch        "LSB;label=32;scalar=64";
    class       dictionary;
    location    "system";
    object      blockMeshDict;
}
// * * * * * * * * * * * * * * * * * * * * * * * * * * * * * * * * * * * * * //

convertToMeters 0.001;

// Dictionary format using calc's copied from Wolf dynamics tutorials:
xmin -0.20;
xmax  0.20;
ymin -0.50;
ymax  0.06;
zmin -0.20;
zmax  0.20;

dx 0.02; 
dy $dx;
dz $dx;

lx #calc "$xmax - $xmin";
ly #calc "$ymax - $ymin";
lz #calc "$zmax - $zmin";

xcells #calc "abs(($lx)/($dx))";
ycells #calc "abs(($ly)/($dy))";
zcells #calc "abs(($lz)/($dz))";

vertices
(
    ($xmin  $ymin  $zmin)
    ($xmax  $ymin  $zmin)
    ($xmax  $ymax  $zmin)
    ($xmin  $ymax  $zmin)
    ($xmin  $ymin  $zmax)
    ($xmax  $ymin  $zmax)
    ($xmax  $ymax  $zmax)
    ($xmin  $ymax  $zmax)
);

blocks
(

hex (0 1 2 3 4 5 6 7) ($xcells $ycells $zcells) simpleGrading (1 1 1)

);

edges
(
);

boundary
(
	top
    {
        type patch;
        faces
        (
            (4 5 6 7)
        );
    }
	
	bottom
    {
        type patch;
        faces
        (
            (0 3 2 1)
        );
    }
	
	right
    {
        type patch;
        faces
        (
            (1 2 6 5)
        );
    }
	
	left
    {
        type patch;
        faces
        (
            (0 4 7 3)
        );
    }

    front
    {
        type patch;
        faces
        (
            (2 3 7 6)
        );
    }
	
    back
    {
        type patch;
        faces
        (
            (0 1 4 5)
        );
    }
);

mergePatchPairs
(
);

// ************************************************************************* //
